S3_ZINC001875262583,S3_ZINC000084640018,S3_ZINC000071589750
     RDKit          3D

  3  2  0  0  0  0  0  0  0  0999 V2000
    3.7168    7.7888  -22.6246 C   0  0  0  0  0  0  0  0  0  0  0  0
    2.7205    6.8508  -23.0243 O   0  0  0  0  0  0  0  0  0  0  0  0
    3.0317    5.5558  -23.0246 *   0  0  0  0  0  0  0  0  0  0  0  0
  1  2  1  0
  2  3  1  0
V    3 *
M  END
$$$$
S3_ZINC000219509138,S3_ZINC000219041855,S3_ZINC000244811463,S3_ZINC000219509138,S3_ZINC000243932540,S3_ZINC000223330110,S3_ZINC000244633674,S3_ZINC000244718850,S3_ZINC000223330110,S3_ZINC000222808675,S3_ZINC000219237890,S3_ZINC000222363498,S3_ZINC000252550811,S3_ZINC000252527914,S3_ZINC000222995406,S3_ZINC000244811500,S3_ZINC000252571514,S3_ZINC000222267930,S3_ZINC000222995406,S3_ZINC000244678421,S3_ZINC000219226876,S3_ZINC000243900928,S3_ZINC000244882623,S3_ZINC000252550399,S3_ZINC000252527672,S3_ZINC000244852863,S3_ZINC000244678972
     RDKit          3D

  4  3  0  0  0  0  0  0  0  0999 V2000
    4.2277    9.2603  -20.7937 C   0  0  0  0  0  0  0  0  0  0  0  0
    3.8206    7.9528  -21.1560 O   0  0  0  0  0  0  0  0  0  0  0  0
    3.9338    7.7058  -22.5501 C   0  0  0  0  0  0  0  0  0  0  0  0
    3.4941    6.2970  -22.9118 *   0  0  0  0  0  0  0  0  0  0  0  0
  1  2  1  0
  3  4  1  0
  3  2  1  0
V    4 *
M  END
$$$$
S3_ZINC000244734531,S3_ZINC000223405951,S3_ZINC000244724665,S3_ZINC000223874050,S3_ZINC000220449760,S3_ZINC000244626509,S3_ZINC000244626509,S3_ZINC000223566356,S3_ZINC000240662530,S3_ZINC000219944358,S3_ZINC000223617913,S3_ZINC000244882829,S3_ZINC000244894043
     RDKit          3D

  4  4  0  0  0  0  0  0  0  0999 V2000
    4.1089    7.4758  -22.5302 C   0  0  0  0  0  0  0  0  0  0  0  0
    3.8816    8.1664  -21.1997 C   0  0  0  0  0  0  0  0  0  0  0  0
    5.2504    7.6533  -21.5481 C   0  0  0  0  0  0  0  0  0  0  0  0
    3.5357    6.1215  -22.8362 *   0  0  0  0  0  0  0  0  0  0  0  0
  1  3  1  0
  1  2  1  0
  2  3  1  0
  4  1  1  0
V    4 *
M  END
$$$$
S3_ZINC000008076401,S3_ZINC000004899793,S3_ZINC000004899794
     RDKit          3D

  8  8  0  0  0  0  0  0  0  0999 V2000
    4.9024    6.3480  -22.6247 C   0  0  0  0  0  0  0  0  0  0  0  0
    5.8586    5.6498  -22.9476 O   0  0  0  0  0  0  0  0  0  0  0  0
    3.6305    5.9370  -22.7539 *   0  0  0  0  0  0  0  0  0  0  0  0
    5.1455    7.7642  -22.0792 C   0  0  2  0  0  0  0  0  0  0  0  0
    4.4125    8.0503  -20.7564 C   0  0  0  0  0  0  0  0  0  0  0  0
    4.2526    9.5646  -20.7676 C   0  0  0  0  0  0  0  0  0  0  0  0
    4.0809    9.9091  -22.2515 C   0  0  0  0  0  0  0  0  0  0  0  0
    4.6932    8.8079  -23.0245 N   0  0  0  0  0  0  0  0  0  0  0  0
  1  2  2  0
  3  1  1  0
  4  8  1  0
  4  5  1  0
  5  6  1  0
  6  7  1  0
  7  8  1  0
  4  1  1  6
M  CHG  1   8   1
V    3 *
M  END
$$$$
S3_ZINC000223515360
     RDKit          3D

  4  3  0  0  0  0  0  0  0  0999 V2000
    5.7930    7.4726  -21.2361 C   0  0  0  0  0  0  0  0  0  0  0  0
    4.6387    7.4436  -22.1292 N   0  0  0  0  0  0  0  0  0  0  0  0
    4.1487    8.7280  -22.6228 C   0  0  0  0  0  0  0  0  0  0  0  0
    4.1446    6.2359  -22.6243 *   0  0  0  0  0  0  0  0  0  0  0  0
  1  2  1  0
  2  3  1  0
  2  4  1  0
V    4 *
M  END
$$$$
S3_ZINC000256048888
     RDKit          3D

  4  3  0  0  0  0  0  0  0  0999 V2000
    2.2218    6.4509  -23.0223 O   0  0  0  0  0  0  0  0  0  0  0  0
    2.4746    5.2305  -23.0249 C   0  0  0  0  0  0  0  0  0  0  0  0
    3.4426    4.7712  -22.3794 O   0  0  0  0  0  0  0  0  0  0  0  0
    1.5318    4.3166  -23.7353 *   0  0  0  0  0  0  0  0  0  0  0  0
  1  2  2  0
  2  3  1  0
  2  4  1  0
M  CHG  1   3  -1
V    4 *
M  END
$$$$
S3_ZINC000043947018,S3_ZINC000040489148
     RDKit          3D

  5  4  0  0  0  0  0  0  0  0999 V2000
    3.4204    4.3078  -22.3667 O   0  0  0  0  0  0  0  0  0  0  0  0
    3.0593    5.2880  -23.0259 C   0  0  0  0  0  0  0  0  0  0  0  0
    1.8448    5.2265  -23.9590 *   0  0  0  0  0  0  0  0  0  0  0  0
    3.7553    6.4330  -23.0283 N   0  0  0  0  0  0  0  0  0  0  0  0
    5.0998    6.5675  -22.4830 *   0  0  0  0  0  0  0  0  0  0  0  0
  1  2  2  0
  2  3  1  0
  4  5  1  0
  4  2  1  0
V    3 *
V    5 *
M  END
$$$$
S3_ZINC000263586365
     RDKit          3D

  8  7  0  0  0  0  0  0  0  0999 V2000
    3.2215    6.0260  -22.9458 C   0  0  0  0  0  0  0  0  0  0  0  0
    3.8771    5.2659  -22.2398 O   0  0  0  0  0  0  0  0  0  0  0  0
    2.1240    5.6672  -23.7289 *   0  0  0  0  0  0  0  0  0  0  0  0
    3.4201    7.3633  -23.0232 O   0  0  0  0  0  0  0  0  0  0  0  0
    4.4206    8.0912  -22.2758 C   0  0  0  0  0  0  0  0  0  0  0  0
    5.8447    7.4990  -22.3917 C   0  0  0  0  0  0  0  0  0  0  0  0
    4.0272    8.2196  -20.7923 C   0  0  0  0  0  0  0  0  0  0  0  0
    4.4215    9.5017  -22.8877 C   0  0  0  0  0  0  0  0  0  0  0  0
  1  2  2  0
  3  1  1  0
  5  6  1  0
  5  7  1  0
  5  8  1  0
  5  4  1  0
  4  1  1  0
V    3 *
M  END
$$$$
S3_ZINC000026338182
     RDKit          3D

 10 10  0  0  0  0  0  0  0  0999 V2000
    3.5135    6.5122  -23.0177 N   0  0  0  0  0  0  0  0  0  0  0  0
    2.9037    5.2995  -23.1206 *   0  0  0  0  0  0  0  0  0  0  0  0
    4.6390    6.8593  -22.1964 C   0  0  0  0  0  0  0  0  0  0  0  0
    5.6866    5.9231  -21.9603 C   0  0  0  0  0  0  0  0  0  0  0  0
    6.6900    6.1697  -20.9987 C   0  0  0  0  0  0  0  0  0  0  0  0
    6.6785    7.3836  -20.2909 C   0  0  0  0  0  0  0  0  0  0  0  0
    5.7148    8.3562  -20.5891 C   0  0  0  0  0  0  0  0  0  0  0  0
    4.7086    8.1464  -21.5663 C   0  0  0  0  0  0  0  0  0  0  0  0
    7.7332    5.1447  -20.6636 *   0  0  0  0  0  0  0  0  0  0  0  0
    3.8242    9.1960  -21.9218 *   0  0  0  0  0  0  0  0  0  0  0  0
  2  1  1  0
  3  8  2  0
  3  4  1  0
  4  5  2  0
  5  6  1  0
  6  7  2  0
  7  8  1  0
  5  9  1  0
  8 10  1  0
  3  1  1  0
V    2 *
V    9 *
V   10 *
M  END
$$$$
S3_ZINC000006960720,S3_ZINC000010809579
     RDKit          3D

  4  3  0  0  0  0  0  0  0  0999 V2000
    3.7973    7.5738  -21.9705 C   0  0  0  0  0  0  0  0  0  0  0  0
    2.7418    6.6410  -22.5691 C   0  0  0  0  0  0  0  0  0  0  0  0
    3.2802    5.3384  -22.6530 O   0  0  0  0  0  0  0  0  0  0  0  0
    2.6109    4.4144  -23.4247 *   0  0  0  0  0  0  0  0  0  0  0  0
  1  2  1  0
  3  4  1  0
  3  2  1  0
V    4 *
M  END
$$$$
Untitled
     RDKit          3D

 12 13  0  0  1  0  0  0  0  0999 V2000
    5.0959    7.3301  -22.1140 C   0  0  0  0  0  0  0  0  0  0  0  0
    5.3810    8.8790  -21.9860 C   0  0  1  0  0  0  0  0  0  0  0  0
    4.4129    9.5180  -20.9330 C   0  0  0  0  0  0  0  0  0  0  0  0
    3.9680   10.8150  -21.6010 C   0  0  2  0  0  0  0  0  0  0  0  0
    3.8979   10.4750  -23.0739 C   0  0  0  0  0  0  0  0  0  0  0  0
    6.3200   10.2810  -23.7110 C   0  0  0  0  0  0  0  0  0  0  0  0
    7.4170    9.4341  -23.0981 C   0  0  0  0  0  0  0  0  0  0  0  0
    6.8730    9.0930  -21.6580 C   0  0  0  0  0  0  0  0  0  0  0  0
    4.9360   11.7811  -21.3510 F   0  0  0  0  0  0  0  0  0  0  0  0
    5.0790    9.5930  -23.2871 N   0  0  1  0  0  0  0  0  0  0  0  0
    3.7021    7.2380  -22.4330 O   0  0  0  0  0  0  0  0  0  0  0  0
    3.2270    6.0310  -22.8599 *   0  0  0  0  0  0  0  0  0  0  0  0
  2  1  1  6
  1 11  1  0
  2  3  1  0
  2  8  1  0
  2 10  1  0
  3  4  1  0
  4  5  1  0
  4  9  1  6
 10  5  1  1
  6  7  1  0
  6 10  1  0
  7  8  1  0
 12 11  1  0
M  CHG  1  10   1
V   12 *
M  END
>  <s_m_entry_id>  (11) 
2

>  <s_m_entry_name>  (11) 
Mirati-fluro-bicyclic-amine-fragments.1

>  <s_m_Source_Path>  (11) 
/home/julia/Documents/BSC/pc_bsc/julia/results/KRAS/rescore_fragments_KRAS_Soumya/glide-dock_SP_rescore_Mirati_fluoro-bicyclic-amine

>  <s_m_Source_File>  (11) 
glide-dock_SP_rescore_Mirati_fluoro-bicyclic-amine_pv.maegz

>  <i_m_Source_File_Index>  (11) 
2

>  <s_m_job_name>  (11) 
epik_fluoro-bicyclic-amine

>  <s_epik_input>  (11) 
W0NIXSNDYzFjKEYpW2NIXVtjSF1jKGMxMilbY0hdYyhbT0hdKVtjSF1jMi1jKG5bY0hdMyljKEYpYyhjMzQpbmMobmM0TihbQ0gyXVtDQEhdNTYpW0NIMl1bQ0BIXShbTkhdNilbQ0gyXVtDSDJdNSlPW0NIMl1bQ0BAXTc4TihbQ0gyXVtDQEhdKEYpW0NIMl03KVtDSDJdW0NIMl1bQ0gyXTg=

>  <s_epik_cmdline>  (11) 
J2VwaWtfYXBwJywgJy1pbWFlJywgJy9zaGFyZWQvd29yay9sZGlhei9HTV9TdXBlcmx1bWluYWwvS1JBU19HMTJEL2VwaWtfZmx1b3JvLWJpY3ljbGljLWFtaW5lL2VwaWtfZmx1b3JvLWJpY3ljbGljLWFtaW5lLm1hZWd6JywgJy1vbWFlJywgJ2VwaWtfZmx1b3JvLWJpY3ljbGljLWFtaW5lLW91dC5tYWVneicsICctbnQnLCAnLW1zJywgJzEnLCAnLXBoJywgJzYuOTAnLCAnLXBodCcsICcwLjUwJywgJy1zJywgJ3dhdGVyJw==

>  <r_epik_Ionization_Penalty>  (11) 
  0.0563

>  <r_epik_Ionization_Penalty_Charging>  (11) 
  0.0523

>  <r_epik_Ionization_Penalty_Neutral>  (11) 
  0.0040

>  <r_epik_State_Penalty>  (11) 
  0.0000

>  <r_epik_Charging_Adjusted_Penalty>  (11) 
0.0523342448120783

>  <i_epik_Tot_Q>  (11) 
2

>  <i_epik_Tot_abs_Q>  (11) 
2

>  <r_lp_tautomer_probability>  (11) 
1

>  <MW_cresset>  (11) 
601

>  <#Atoms_cresset>  (11) 
44

>  <SlogP_cresset>  (11) 
5.3

>  <TPSA_cresset>  (11) 
87

>  <Rof5_cresset>  (11) 
2

>  <_cresset_fieldpoints>  (11) 
    -5      -0.412109       0.736065     -25.566504     -6.7535
    -5       4.198764       8.237833     -24.819740     -8.5630
    -5       3.943510      14.261609     -20.431293     -2.9390
    -5       0.984361       7.677646     -22.575424    -10.9703
    -5      -2.457585       5.133837     -28.926018     -4.2575
    -5       5.292418      13.734930     -23.373661     -3.1547
    -5      -3.061613       6.494560     -24.789396     -6.2039
    -5       7.687469      12.558582     -21.399208     -2.8862
    -5       7.083508       0.258016     -24.368179     -3.4930
    -5      -2.568389       2.213581     -29.031340     -4.1267
    -6      -7.546129       3.966524     -25.672684      5.0257
    -6      -6.388730       3.822112     -28.118774      7.3762
    -6       7.858477       5.771778     -22.182980      3.9292
    -6       8.402904      -0.042779     -21.063107      8.6512
    -6       2.615610      -0.493196     -24.603325      3.1063
    -6       2.361678       0.653186     -20.759716      3.7737
    -7       3.667812       4.952518     -19.909138     -2.7665
    -7      -3.766752       0.270526     -24.015051     -2.5382
    -7      -1.502603       5.633320     -20.392050     -2.3755
    -7       7.948397       5.798080     -22.271751     -3.1796
    -7       8.084869       0.606008     -20.014523     -1.9402
    -7       6.150476       7.607778     -18.793282     -1.9753
    -7       0.943621       4.847268     -27.089912     -2.4533
    -7       4.666569       7.898440     -25.253288     -3.1028
    -7       4.464800       2.217004     -26.461704     -2.3746
    -7      -3.695481       6.586329     -22.877689     -2.6638
    -7       0.988373      -0.044509     -22.875368     -2.2060
    -7       7.041135       0.111809     -24.878658     -1.9963
    -7       2.378584       0.449177     -20.584099     -2.2888
    -7       3.141958      11.195379     -18.407557     -1.3448
    -7       3.185542       6.431355     -19.594534     -2.1344
    -7       6.730698      11.075015     -18.657457     -1.5325
    -7       2.238440      13.380726     -22.791615     -1.2867
    -7       1.028278      11.967966     -22.906948     -1.2118
    -7       1.170370       8.376410     -22.034363     -2.8580
    -7       5.300921       6.468797     -25.390608     -2.6210
    -7       8.183306      12.314743     -21.559595     -1.8981
    -7       2.121354       6.843366     -25.949825     -1.8835
    -7       1.214193       8.197368     -24.157673     -2.3564
    -7       5.345582      13.536554     -24.171566     -1.5288
    -7       2.249385       4.135825     -20.353992     -3.0946
    -7      -1.006781       0.202238     -23.937138     -2.6175
    -7      -1.803190       4.164914     -29.520634     -1.2150
    -7      -5.055538       5.992526     -28.317375     -1.2180
    -7      -5.208935       1.381372     -28.186947     -1.2495
    -8      -4.005899       3.407042     -23.017056      7.1749
    -8      -3.165881       3.537894     -25.218716      6.8782
    -8      -1.815546       3.316278     -23.445984      5.6903
    -8       5.649771       2.448315     -21.746387      5.3923
    -8       6.657152       9.492256     -22.422211      5.3440
    -8       4.603106      10.348461     -21.589060      5.7103
    -8       1.074541       3.859304     -23.944126      5.3274
    -8      -1.229916       4.052443     -23.917549      5.5061
    -8       0.047735       4.475318     -23.806042      5.0919

>  <s_i_glide_gridfile>  (11) 
glide-grid_7RPZ_constraints

>  <i_i_glide_lignum>  (11) 
1

>  <i_i_glide_rotatable_bonds>  (11) 
7

>  <r_i_docking_score>  (11) 
-12.9554288013958

>  <r_i_glide_ligand_efficiency>  (11) 
-0.294441563668087

>  <r_i_glide_ligand_efficiency_sa>  (11) 
-1.03948128283524

>  <r_i_glide_ligand_efficiency_ln>  (11) 
-2.70796724058476

>  <r_i_glide_gscore>  (11) 
-12.9554288013958

>  <r_i_glide_lipo>  (11) 
-4.07568305242094

>  <r_i_glide_hbond>  (11) 
-1.00029817851663

>  <r_i_glide_metal>  (11) 
0

>  <r_i_glide_rewards>  (11) 
-0.915080887414583

>  <r_i_glide_evdw>  (11) 
-65.6609878540039

>  <r_i_glide_ecoul>  (11) 
-24.5517730712891

>  <r_i_glide_erotb>  (11) 
0.228365962771295

>  <r_i_glide_esite>  (11) 
-0.226917292421439

>  <r_i_glide_emodel>  (11) 
0

>  <r_i_glide_energy>  (11) 
-90.212760925293

>  <r_i_glide_einternal>  (11) 
0

>  <i_i_glide_confnum>  (11) 
1

>  <i_i_glide_posenum>  (11) 
1

>  <r_i_glide_eff_state_penalty>  (11) 
0

>  <s_m_subgroup_title>  (11) 
glide-dock_SP_rescore_Mirati_fluoro-bicyclic-amine_pv

>  <s_m_subgroupid>  (11) 
glide-dock_SP_rescore_Mirati_fluoro-bicyclic-amine_pv

>  <b_m_subgroup_collapsed>  (11) 
0

$$$$
[Fm]/N=C/c1cc[n+]([O-])cc1
     RDKit          3D

 10 10  0  0  1  0  0  0  0  0999 V2000
    6.6418   12.2327  -20.0741 O   0  0  0  0  0  0  0  0  0  0  0  0
    6.1674   11.1506  -20.4152 N   0  0  0  0  0  0  0  0  0  0  0  0
    3.4985    7.2952  -22.2816 N   0  0  0  0  0  0  0  0  0  0  0  0
    6.8321   10.0087  -20.1164 C   0  0  0  0  0  0  0  0  0  0  0  0
    4.9966   11.1180  -21.0967 C   0  0  0  0  0  0  0  0  0  0  0  0
    4.6939    7.4577  -21.7845 C   0  0  0  0  0  0  0  0  0  0  0  0
    5.1757    8.7479  -21.2783 C   0  0  0  0  0  0  0  0  0  0  0  0
    6.3561    8.8048  -20.5445 C   0  0  0  0  0  0  0  0  0  0  0  0
    4.4876    9.9300  -21.5336 C   0  0  0  0  0  0  0  0  0  0  0  0
    3.0645    6.1019  -22.8191 *   0  0  0  0  0  0  0  0  0  0  0  0
  1  2  1  0
  2  4  2  0
  2  5  1  0
  3  6  2  0
  4  8  1  0
  5  9  2  0
  6  7  1  0
  7  8  2  0
  7  9  1  0
 10  3  1  0
M  CHG  2   1  -1   2   1
V   10 *
M  END
>  <s_m_entry_id>  (12) 
3

>  <s_m_entry_name>  (12) 
Mirati-fluro-bicyclic-amine-fragments.2208

>  <s_m_Source_Path>  (12) 
/home/julia/Documents/BSC/pc_bsc/julia/results/KRAS/rescore_fragments_KRAS_Soumya/glide-dock_SP_rescore_Mirati_fluoro-bicyclic-amine

>  <s_m_Source_File>  (12) 
glide-dock_SP_rescore_Mirati_fluoro-bicyclic-amine_pv.maegz

>  <i_m_Source_File_Index>  (12) 
3

>  <s_m_job_name>  (12) 
epik_fluoro-bicyclic-amine

>  <s_epik_input>  (12) 
W0NIXSNDYzFjKEYpW2NIXVtjSF1jKGMxMilbY0hdYyhbT0hdKVtjSF1jMi1jKG5bY0hdMyljKEYpYyhjMzQpbmMoL049W0NIXS9jKFtjSF1bY0hdNSlbY0hdW2NIXVtuK101W08tXSluYzROKFtDSDJdW0NASF02NylbQ0gyXVtDQEhdKFtOSF03KVtDSDJdW0NIMl02

>  <s_epik_cmdline>  (12) 
J2VwaWtfYXBwJywgJy1pbWFlJywgJy9zaGFyZWQvd29yay9sZGlhei9HTV9TdXBlcmx1bWluYWwvS1JBU19HMTJEL2VwaWtfZmx1b3JvLWJpY3ljbGljLWFtaW5lL2VwaWtfZmx1b3JvLWJpY3ljbGljLWFtaW5lLm1hZWd6JywgJy1vbWFlJywgJ2VwaWtfZmx1b3JvLWJpY3ljbGljLWFtaW5lLW91dC5tYWVneicsICctbnQnLCAnLW1zJywgJzEnLCAnLXBoJywgJzYuOTAnLCAnLXBodCcsICcwLjUwJywgJy1zJywgJ3dhdGVyJw==

>  <r_epik_Ionization_Penalty>  (12) 
  0.0152

>  <r_epik_Ionization_Penalty_Charging>  (12) 
  0.0112

>  <r_epik_Ionization_Penalty_Neutral>  (12) 
  0.0040

>  <r_epik_State_Penalty>  (12) 
  0.0112

>  <r_epik_Charging_Adjusted_Penalty>  (12) 
0.0224451388939809

>  <i_epik_Tot_Q>  (12) 
1

>  <i_epik_Tot_abs_Q>  (12) 
3

>  <MW_cresset>  (12) 
564

>  <#Atoms_cresset>  (12) 
42

>  <SlogP_cresset>  (12) 
5.5

>  <TPSA_cresset>  (12) 
118

>  <Rof5_cresset>  (12) 
2

>  <_cresset_fieldpoints>  (12) 
    -5      -3.274847       6.433286     -24.767593     -7.1319
    -5      -0.551510       0.732453     -25.292702     -8.5549
    -5       0.875781       7.642911     -22.537914    -14.3367
    -5       6.986959       0.393285     -24.365911     -4.0266
    -5      -2.545555       2.336148     -29.116623     -4.8345
    -5      -2.526234       5.054716     -28.916033     -4.9026
    -5       6.022596      14.006946     -20.328550     -3.6508
    -6      -6.480853       3.707065     -27.988102      7.0250
    -6      -7.542665       3.733187     -25.828091      4.8279
    -6       7.635575       6.080935     -20.811972      5.9771
    -6       8.395383       0.191006     -21.064125      8.5071
    -6       3.094327      -1.189588     -22.853855      2.1987
    -6       2.307782       0.591361     -20.705914      2.5197
    -6       2.904931      12.814171     -22.352589      2.7308
    -6       8.875130       7.996003     -19.219309      6.1581
    -7      -8.492573       2.970903     -22.476170     -1.0325
    -7      -3.812940       6.510490     -22.827082     -2.6930
    -7       8.078661       0.692329     -20.035240     -1.9201
    -7       3.795014       5.106432     -19.857943     -2.7167
    -7       4.339398       2.298057     -26.468477     -2.3384
    -7       5.904594       6.958264     -24.404060     -2.2746
    -7      -3.684438       6.682485     -24.625584     -2.5933
    -7       0.916347       4.804441     -27.201399     -2.4051
    -7       0.910808       0.037371     -22.815634     -2.2226
    -7       6.925917       0.215134     -24.862953     -2.0147
    -7       7.637122       6.031992     -22.260824     -2.7661
    -7       2.198846       4.139338     -20.353918     -3.0066
    -7       0.478164       5.481808     -20.544945     -2.5245
    -7      -0.935536       0.311444     -23.943926     -2.8354
    -7       2.289964       0.490058     -20.561378     -2.2553
    -7      -3.052062       0.174637     -24.225983     -2.5406
    -7      -5.546301       1.441136     -28.125362     -1.2393
    -7      -1.801629       4.354530     -29.392832     -1.2131
    -7      -5.224044       5.944193     -28.042156     -1.2452
    -7       7.325790      10.296917     -23.557020     -1.5762
    -7       5.402312      12.098786     -17.918037     -1.4072
    -7       4.018531       9.644909     -18.079010     -1.5507
    -7       7.876028      12.342853     -22.263512     -1.4406
    -7       2.046932      11.909644     -22.745436     -0.9270
    -7       1.349764       8.639185     -21.945314     -1.9596
    -8      -4.018267       3.334235     -22.984959      7.1723
    -8      -3.174723       3.472025     -25.187250      7.0479
    -8      -1.301014       4.157947     -24.044518      5.7810
    -8       5.613750       2.516890     -21.696020      5.1431
    -8       5.480881       9.477551     -20.994614      5.3811
    -8      -1.812083       3.443624     -23.554483      5.7104
    -8       0.956872       3.921569     -24.027050      5.3929
    -8      -0.111751       4.534762     -23.919147      5.2225

>  <s_i_glide_gridfile>  (12) 
glide-grid_7RPZ_constraints

>  <i_i_glide_lignum>  (12) 
2208

>  <i_i_glide_rotatable_bonds>  (12) 
6

>  <r_i_docking_score>  (12) 
-12.8967620669039

>  <r_i_glide_ligand_efficiency>  (12) 
-0.307065763497712

>  <r_i_glide_ligand_efficiency_sa>  (12) 
-1.06736877432062

>  <r_i_glide_ligand_efficiency_ln>  (12) 
-2.72217421348534

>  <r_i_glide_gscore>  (12) 
-12.9079620669039

>  <r_i_glide_lipo>  (12) 
-3.94896312318996

>  <r_i_glide_hbond>  (12) 
-0.8498688518845

>  <r_i_glide_metal>  (12) 
0

>  <r_i_glide_rewards>  (12) 
-1.21877621511534

>  <r_i_glide_evdw>  (12) 
-59.0885734558105

>  <r_i_glide_ecoul>  (12) 
-28.3908958435059

>  <r_i_glide_erotb>  (12) 
0.242179430681352

>  <r_i_glide_esite>  (12) 
-0.178104634604932

>  <r_i_glide_emodel>  (12) 
0

>  <r_i_glide_energy>  (12) 
-87.4794692993164

>  <r_i_glide_einternal>  (12) 
0

>  <i_i_glide_confnum>  (12) 
1

>  <i_i_glide_posenum>  (12) 
1

>  <r_i_glide_eff_state_penalty>  (12) 
0.0112

>  <s_epik_Chemistry_Notes>  (12) 
This compound has an imine and may undergo hydrolysis.

>  <Total Formal Charge>  (12) 
0

>  <Setting>  (12) 
[Custom]

>  <Frag ID>  (12) 
5279

>  <Attachment Point 1 Type>  (12) 
Nsp2

>  <Unstable>  (12) 
false

>  <Database>  (12) 
ChEMBL_veryrare

>  <Attachment Types>  (12) 
Ntri

>  <Frequency>  (12) 
2

>  <Parent Title>  (12) 
CHEMBL20106

>  <TorsFreq Frag>  (12) 
High

>  <Strain 1>  (12) 
0.1

>  <TorsFreq 1>  (12) 
High

>  <BIF>  (12) 
0.12

>  <Cluster SMILES>  (12) 
[Fm]/N=C/c1cc[nH+]cc1

>  <Cluster Number>  (12) 
1171

>  <Rank>  (12) 
2207

>  <Favorite_cresset>  (12) 
false

>  <BIF%>  (12) 
12

>  <Score>  (12) 
0.874

>  <Field Score>  (12) 
0.861

>  <Shape Score>  (12) 
0.887

>  <Docking Score>  (12) 
0

>  <Flexibility_cresset>  (12) 
2.8

>  <#RB_cresset>  (12) 
5

>  <Radial Plot_cresset>  (12) 
0.21

>  <2D Sim_cresset>  (12) 
0.451

>  <Fragment SMILES>  (12) 
[Fm]/N=C/c1cc[n+]([O-])cc1

>  <s_m_subgroup_title>  (12) 
glide-dock_SP_rescore_Mirati_fluoro-bicyclic-amine_pv

>  <s_m_subgroupid>  (12) 
glide-dock_SP_rescore_Mirati_fluoro-bicyclic-amine_pv

>  <b_m_subgroup_collapsed>  (12) 
0

$$$$
[Fm]OCC1(CC(C1)C)C[NH3+]
     RDKit          3D

 10 10  0  0  1  0  0  0  0  0999 V2000
    3.6180    7.2645  -22.4407 O   0  0  0  0  0  0  0  0  0  0  0  0
    7.2370    7.9010  -19.8845 N   0  0  0  0  0  0  0  0  0  0  0  0
    4.6429    9.5323  -20.6912 C   0  0  0  0  0  0  0  0  0  0  0  0
    5.3415    9.7502  -22.7422 C   0  0  0  0  0  0  0  0  0  0  0  0
    4.9970    7.2996  -22.0037 C   0  0  0  0  0  0  0  0  0  0  0  0
    7.0229    8.6568  -21.1684 C   0  0  0  0  0  0  0  0  0  0  0  0
    4.9534   11.9485  -21.4800 C   0  0  0  0  0  0  0  0  0  0  0  0
    5.5453    8.7011  -21.6276 C   0  0  2  0  0  0  0  0  0  0  0  0
    4.4044   10.5517  -21.8202 C   0  0  2  0  0  0  0  0  0  0  0  0
    3.1695    6.1168  -22.9080 *   0  0  0  0  0  0  0  0  0  0  0  0
  1  5  1  0
  2  6  1  0
  3  8  1  0
  3  9  1  0
  4  8  1  0
  4  9  1  0
  8  5  1  6
  6  8  1  0
  9  7  1  1
 10  1  1  0
M  CHG  1   2   1
V   10 *
M  END
>  <s_m_entry_id>  (13) 
4

>  <s_m_entry_name>  (13) 
Mirati-fluro-bicyclic-amine-fragments.144

>  <s_m_Source_Path>  (13) 
/home/julia/Documents/BSC/pc_bsc/julia/results/KRAS/rescore_fragments_KRAS_Soumya/glide-dock_SP_rescore_Mirati_fluoro-bicyclic-amine

>  <s_m_Source_File>  (13) 
glide-dock_SP_rescore_Mirati_fluoro-bicyclic-amine_pv.maegz

>  <i_m_Source_File_Index>  (13) 
4

>  <s_m_job_name>  (13) 
epik_fluoro-bicyclic-amine

>  <s_epik_input>  (13) 
W0NIXSNDYzFjKEYpW2NIXVtjSF1jKGMxMilbY0hdYyhbT0hdKVtjSF1jMi1jKG5bY0hdMyljKEYpYyhjMzQpbmMoT1tDSDJdW0NAXTUoW0NIMl1bTkgzK10pW0NIMl1bQ0BIXShbQ0gyXTUpW0NIM10pbmM0TihbQ0gyXVtDQEhdNjcpW0NIMl1bQ0BIXShbTkhdNylbQ0gyXVtDSDJdNg==

>  <s_epik_cmdline>  (13) 
J2VwaWtfYXBwJywgJy1pbWFlJywgJy9zaGFyZWQvd29yay9sZGlhei9HTV9TdXBlcmx1bWluYWwvS1JBU19HMTJEL2VwaWtfZmx1b3JvLWJpY3ljbGljLWFtaW5lL2VwaWtfZmx1b3JvLWJpY3ljbGljLWFtaW5lLm1hZWd6JywgJy1vbWFlJywgJ2VwaWtfZmx1b3JvLWJpY3ljbGljLWFtaW5lLW91dC5tYWVneicsICctbnQnLCAnLW1zJywgJzEnLCAnLXBoJywgJzYuOTAnLCAnLXBodCcsICcwLjUwJywgJy1zJywgJ3dhdGVyJw==

>  <r_epik_Ionization_Penalty>  (13) 
  0.0160

>  <r_epik_Ionization_Penalty_Charging>  (13) 
  0.0120

>  <r_epik_Ionization_Penalty_Neutral>  (13) 
  0.0040

>  <r_epik_State_Penalty>  (13) 
  0.0112

>  <r_epik_Charging_Adjusted_Penalty>  (13) 
0.0231910334546772

>  <i_epik_Tot_Q>  (13) 
2

>  <i_epik_Tot_abs_Q>  (13) 
2

>  <r_lp_tautomer_probability>  (13) 
1

>  <MW_cresset>  (13) 
572

>  <#Atoms_cresset>  (13) 
42

>  <SlogP_cresset>  (13) 
5.1

>  <TPSA_cresset>  (13) 
111

>  <Rof5_cresset>  (13) 
2

>  <_cresset_fieldpoints>  (13) 
    -5      -3.245553       6.562352     -24.735607     -5.4641
    -5      -0.565488       0.828545     -25.379122     -6.7190
    -5       0.909382       7.758479     -22.618484    -10.1975
    -5       7.021820       0.357240     -24.415791     -2.2777
    -5      -2.570587       2.404486     -29.160223     -3.5565
    -6      -6.430289       3.883372     -28.051178      8.0125
    -6      -7.494201       3.926511     -25.882586      5.7911
    -6       8.382521       0.172109     -21.094601      9.9126
    -6       3.822088       1.333614     -26.371033      3.9384
    -6       2.517416      -0.427533     -24.471758      3.9844
    -6       2.299802       0.768242     -20.778198      4.6918
    -6       6.023307       5.290280     -19.160065      5.1203
    -6       7.305889      10.380382     -18.493927      4.5233
    -6       7.872498       5.722959     -21.721628      6.8935
    -7       0.768013       5.441317     -20.533720     -2.5784
    -7      -3.748953       6.622143     -22.860170     -2.6920
    -7       8.070414       0.669684     -20.080687     -1.9226
    -7       4.605644       6.992304     -18.628113     -2.2678
    -7       8.004004       5.702581     -22.077011     -3.0689
    -7       4.363614       2.322119     -26.531082     -2.3476
    -7       0.977470       4.937324     -27.205984     -2.4190
    -7       5.257832       6.516716     -25.351206     -2.4649
    -7      -5.164538       6.095777     -28.105043     -1.2443
    -7       0.933088       0.086056     -22.884449     -2.2141
    -7       6.949000       0.199808     -24.920261     -2.0138
    -7       3.387001       4.834354     -20.024685     -2.8814
    -7       2.296724       0.512334     -20.645761     -2.2604
    -7       5.339651       5.311659     -18.956850     -2.2102
    -7       1.405347       8.721192     -21.970192     -2.5246
    -7      -1.624659       5.794758     -20.533659     -2.3984
    -7       2.253843       4.211532     -20.419273     -3.1393
    -7      -0.944324       0.400221     -24.041592     -2.8359
    -7      -5.501761       1.591486     -28.193153     -1.2393
    -7      -1.735143       4.416400     -29.463322     -1.2110
    -7       7.292892      10.992908     -18.789934     -2.0070
    -7       7.141163       7.843524     -24.665951     -2.0292
    -7       3.699100      11.752501     -24.769928     -1.4856
    -7      10.127992       9.270908     -20.689167     -1.0040
    -7       8.337531      11.735082     -22.388298     -1.7068
    -7       1.973211      11.203214     -19.738012     -1.4808
    -7       2.002906       8.999572     -23.806822     -2.4400
    -8      -3.989448       3.447636     -23.048376      7.1730
    -8      -3.136441       3.598415     -25.248165      7.0422
    -8      -1.775771       3.532447     -23.594778      5.7292
    -8       5.641074       2.518131     -21.757586      5.1511
    -8       5.242466       9.794352     -21.623711      6.7451
    -8       1.002353       3.988016     -24.057142      5.3907
    -8      -1.261014       4.240160     -24.061861      5.7660

>  <s_i_glide_gridfile>  (13) 
glide-grid_7RPZ_constraints

>  <i_i_glide_lignum>  (13) 
144

>  <i_i_glide_rotatable_bonds>  (13) 
8

>  <r_i_docking_score>  (13) 
-12.4806842487145

>  <r_i_glide_ligand_efficiency>  (13) 
-0.297159148778917

>  <r_i_glide_ligand_efficiency_sa>  (13) 
-1.03293311764037

>  <r_i_glide_ligand_efficiency_ln>  (13) 
-2.63435090546409

>  <r_i_glide_gscore>  (13) 
-12.4918842487145

>  <r_i_glide_lipo>  (13) 
-4.17284901444372

>  <r_i_glide_hbond>  (13) 
-0.932439627210246

>  <r_i_glide_metal>  (13) 
0

>  <r_i_glide_rewards>  (13) 
-0.867863457526945

>  <r_i_glide_evdw>  (13) 
-57.6170806884766

>  <r_i_glide_ecoul>  (13) 
-24.848072052002

>  <r_i_glide_erotb>  (13) 
0.289213595991949

>  <r_i_glide_esite>  (13) 
-0.199880903301438

>  <r_i_glide_emodel>  (13) 
0

>  <r_i_glide_energy>  (13) 
-82.4651527404785

>  <r_i_glide_einternal>  (13) 
0

>  <i_i_glide_confnum>  (13) 
1

>  <i_i_glide_posenum>  (13) 
1

>  <r_i_glide_eff_state_penalty>  (13) 
0.0112

>  <Total Formal Charge>  (13) 
0.125

>  <Setting>  (13) 
[Custom]

>  <Frag ID>  (13) 
1514093

>  <Attachment Point 1 Type>  (13) 
Osp3

>  <Unstable>  (13) 
false

>  <Database>  (13) 
Rare

>  <Attachment Types>  (13) 
Csp3,Car

>  <Frequency>  (13) 
33

>  <Parent Title>  (13) 
170744588

>  <TorsFreq Frag>  (13) 
High

>  <Strain 1>  (13) 
0

>  <TorsFreq 1>  (13) 
High

>  <BIF>  (13) 
0.314

>  <Cluster SMILES>  (13) 
[Fm]OCC1(CCC1)C[NH3+]

>  <Cluster Number>  (13) 
19

>  <Rank>  (13) 
143

>  <Favorite_cresset>  (13) 
false

>  <BIF%>  (13) 
31

>  <Score>  (13) 
0.902

>  <Field Score>  (13) 
0.865

>  <Shape Score>  (13) 
0.939

>  <Docking Score>  (13) 
0

>  <Flexibility_cresset>  (13) 
5.6

>  <#RB_cresset>  (13) 
7

>  <Radial Plot_cresset>  (13) 
0.144

>  <2D Sim_cresset>  (13) 
0.718

>  <Fragment SMILES>  (13) 
[Fm]OCC1(CC(C1)C)C[NH3+]

>  <Parent Aux1>  (13) 
https://www.emolecules.com/search/#?query=170744588&querytype=emoleculesid

>  <s_m_subgroup_title>  (13) 
glide-dock_SP_rescore_Mirati_fluoro-bicyclic-amine_pv

>  <s_m_subgroupid>  (13) 
glide-dock_SP_rescore_Mirati_fluoro-bicyclic-amine_pv

>  <b_m_subgroup_collapsed>  (13) 
0

$$$$
